test/data/three_phase/regulatorB_node_load/result.csv
# result.csv run at 2000-01-01 00:00:00 EST on 13 powerflow objects (not all are nodes)
node_name,voltA_real,voltA_imag,voltB_real,voltB_imag,voltC_real,voltC_imag
n650,2401.777100,0.000000,-1200.888600,-2080.000000,-1200.888600,2080.000000
n630,2561.895122,0.000260,-1264.091439,-2189.472536,-1289.544569,2233.553066
n632,2534.299786,18.840223,-1133.952479,-2103.385857,-1258.435472,1954.540239
l6321,2527.400952,23.550213,-1101.417739,-2081.864187,-1250.658198,1884.787032
